grid_TF_Wind/data/TYTFS2024_studyfiles/TYTFS2024_SV2024_V33.seq
 0            / end of change code.  Begin positive sequence gen impedances
@!  
@!  qry :  Generator Impedance
@!  
@!  I, ID, ZRPOS, ZXPPDV, ZXPDV, ZXSDV, ZRNEG, ZXNEGDV, ZR0, ZX0DV, CZG, ZRG, ZXG
@!  
@!  
10271, 1, , 0.27, , ,0, 0.22, 0, 999
10272, 2, , 0.27, , ,0, 0.22, 0, 999
10273, 3, , 0.27, , ,0, 0.22, 0, 999
10274, 4, , 0.255, , ,0, 0.22, 0, 999
10275, 3, 0.0092, 1, , ,0.0092, 0.1621, 9999, 9999
10276, 2, 0.0073, 1, , ,0.0073, 0.135, 9999, 9999
10401, 1, 0.004, 0.833, , ,0, 0.833, 0, 999
10470, 1, 0.0027, 0.245, , ,0, 0.18, 0, 0.12
10471, 1, , 0.833, , ,0, 0.234, 0, 0.132
10472, 11, , 0.201, , ,0, 0.131, 0, 0.07
10473, 12, , 0.201, , ,0, 0.131, 0, 0.07
10474, 14, , 0.201, , ,0, 0.131, 0, 0.07
10671, 2, 0.0204, 0.3, , ,0.0204, 0.3306, 9999, 9999
10672, 3, 0.0204, 0.3, , ,0.0204, 0.3306, 9999, 9999
10673, 1, 0.0204, 0.3, , ,0.0204, 0.3306, 9999, 9999
10674, 5, 0.0257, 0.3, , ,9999, 9999, 9999, 9999
11204, 1, , 0.2, , ,0, 0.2, 0, 999
11271, 1, 0.0032, 1, , ,0.0032, 0.124, 9999, 9999
11303, 1, 0.0032, 0.833, , ,0.0032, 0.2, 9999, 9999
11371, 1, 0.0071, 1, , ,0.0071, 0.2166, 9999, 9999
11372, 1, 0.0032, 1, , ,0.0032, 0.2, 9999, 9999
12101, XX, , 0.833, , ,0, 0.833, 0, 999
12371, 1, 0.0257, 0.833, , ,9999, 9999, 9999, 9999
12372, 2, 0.0257, 0.833, , ,9999, 9999, 9999, 9999
12571, 1, 0.0092, 1, , ,0.0092, 0.1621, 9999, 9999
12572, 1, 0.0252, 0.833, , ,9999, 9999, 9999, 9999
12574, 1, 0.0032, 0.833, , ,0.0032, 0.124, 9999, 9999
12771, 1, 0.0088, 0.833, , ,0, 0.833, 0, 999
12872, DW, 0.0257, 1, , ,9999, 9999, 9999, 9999
12873, 1, 0.0257, 1, , ,9999, 9999, 9999, 9999
12874, 1, 0.0021, 0.3, , ,0.002, 0.0838, 9999, 9999
13011, 1, 0.02, 0.833, , ,0, 0.833, 0, 999
13170, 1, 0.0257, 0.833, , ,9999, 9999, 9999, 9999
13171, 1, 0.009, 1, , ,0.009, 0.148, 9999, 9999
13172, 1, 0.0032, 0.833, , ,0.0032, 0.124, 9999, 9999
13271, 1, , 0.271, , ,0, 0.205, 0, 0.091
13371, 1, 0.0088, 0.833, , ,0, 0.833, 0, 999
13434, 10, , 0.2, , ,0, 0.2, 0, 999
13471, 1, 0.0204, 1, , ,0.0204, 0.3306, 9999, 9999
13472, DW, 0.0302, 0.833, , ,9999, 9999, 9999, 9999
13473, 4, 0.0032, 1, , ,0.0031, 0.124, 9999, 9999
13474, 1, 0.0257, 0.833, , ,9999, 9999, 9999, 9999
13475, 6, 0.0032, 1, , ,0.0073, 0.135, 9999, 9999
13476, 3, 0.0257, 0.833, , ,9999, 9999, 9999, 9999
13477, 2, 0.0302, 0.833, , ,9999, 9999, 9999, 9999
13479, 9, 0.0073, 0.833, , ,0.0073, 0.135, 9999, 9999
13872, 1, 0.0001, 0.833, , ,0, 0.833, 0, 999
14073, 3, 0.0204, 0.3, , ,0.0204, 0.3306, 9999, 9999
14304, 1, , 0.2, , ,0, 0.15, 0, 999
14471, 1, 0.0032, 1, , ,0.0031, 0.124, 9999, 9999
14472, 1, 0.0021, 1, , ,0.002, 0.0838, 9999, 9999
14474, 1, 0.009, 1, , ,0.009, 0.148, 9999, 9999
14871, 1, 0.0257, 1, , ,9999, 9999, 9999, 9999
14971, 1, 0.02, 0.833, , ,0, 0.833, 0, 999
15112, 1, 0.0032, 0.833, , ,0.0032, 0.124, 9999, 9999
15171, TW, 0.009, 0.833, , ,0.009, 0.148, 9999, 9999
15172, DW, 0.009, 0.833, , ,0.009, 0.148, 9999, 9999
15174, DW, 0.009, 0.833, , ,0.009, 0.148, 9999, 9999
15175, 1, 0.0032, 0.833, , ,0.0032, 0.124, 9999, 9999
15271, 1, 0.0032, 0.833, , ,0, 0.833, 0, 999
15472, 1, 0.0252, 0.833, , ,0, 0.833, 0, 999
15473, 1, 0.0088, 0.833, , ,0, 0.833, 0, 999
15571, 1, 0.0073, 0.833, , ,0.0073, 0.135, 9999, 9999
15571, 2, 0.0073, 0.833, , ,0.0073, 0.135, 9999, 9999
15571, DW, 0.0073, 0.833, , ,0.0073, 0.135, 9999, 9999
15572, 1, 0.0257, 1, , ,9999, 9999, 9999, 9999
15573, 1, 0.0257, 0.833, , ,9999, 9999, 9999, 9999
15574, 1, 0.009, 1, , ,0.009, 0.166, 9999, 9999
15771, 1, 0.0204, 1, , ,0.0204, 0.3306, 9999, 9999
15772, 1, 0.0204, 1, , ,0.0204, 0.3306, 9999, 9999
16371, 1, 0.0073, 1, , ,0.0073, 0.135, 9999, 9999
16372, 2, 0.0073, 1, , ,0.0073, 0.135, 9999, 9999
16373, 3, 0.0073, 1, , ,0.0073, 0.135, 9999, 9999
16374, 4, 0.0021, 0.3, , ,0.002, 0.0838, 9999, 9999
16375, 1, 0.0021, 0.3, , ,0.002, 0.0838, 9999, 9999
16376, 6, 0.0021, 1, , ,0.002, 0.0838, 9999, 9999
16377, 1, 0.0257, 0.833, , ,9999, 9999, 9999, 9999
16378, 1, 0.0021, 1, , ,0.002, 0.0838, 9999, 9999
16379, 2, 0.0032, 0.3, , ,0.0032, 0.124, 9999, 9999
16382, 1, 0.0257, 0.833, , ,0, 0.833, 0, 999
16392, 1, 0.0257, 0.833, , ,0, 0.833, 0, 999
16571, 1, 0.0257, 0.833, , ,9999, 9999, 9999, 9999
16670, 1, 0.0302, 0.833, , ,9999, 9999, 9999, 9999
16671, 1, 0.0073, 1, , ,0.0073, 0.135, 9999, 9999
16672, 2, 0.0073, 0.833, , ,0.0073, 0.135, 9999, 9999
16674, 1, 0.0073, 1, , ,0.0073, 0.135, 9999, 9999
16675, 2, 0.0269, 0.833, , ,9999, 9999, 9999, 9999
16676, 1, 0.0302, 0.833, , ,9999, 9999, 9999, 9999
16679, 3, 0.0302, 0.833, , ,9999, 9999, 9999, 9999
16771, 1, 0.0021, 0.833, , ,0, 0.833, 0, 999
16771, 2, 0.008, 0.833, , ,0, 0.833, 0, 999
16873, 3, , 0.3, , ,0, 0.25, 0, 999
17073, 3, 0.0041, 0.31, , ,0, 0.22, 0, 0.124
17074, 4, 0.0041, 0.31, , ,0, 0.22, 0, 0.1
17075, 7, 0.0204, 0.833, , ,0.0204, 0.3306, 9999, 9999
17077, 8, 0.0302, 0.3, , ,9999, 9999, 9999, 9999
17671, 1, , 0.22, , ,0, 0.5, 0, 0.06
17672, 2, , 0.21, , ,0, 0.5, 0, 0.06
18271, DW, 0.0073, 1, , ,0.0073, 0.135, 9999, 9999
18372, 1, 0.0032, 0.833, , ,0.0032, 0.124, 9999, 9999
18471, 1, 0.0055, 0.3, , ,0.0055, 0.143, 9999, 9999
18472, DW, 0.0022, 0.3, , ,0.0022, 0.4194, 9999, 9999
18474, 1, 0.001411, 0.833, , ,0, 0.833, 0, 999
18476, 1, 0.0252, 0.833, , ,0, 0.833, 0, 999
19081, 1, 0.0073, 1, , ,0.0073, 0.135, 9999, 9999
19082, 2, 0.0073, 1, , ,0.0073, 0.135, 9999, 9999
19083, 1, 0.0257, 0.833, , ,9999, 9999, 9999, 9999
19084, 2, 0.0257, 0.833, , ,9999, 9999, 9999, 9999
19085, 1, 0.0022, 1, , ,0.0022, 0.4194, 9999, 9999
19317, XX, , 0.833, , ,0, 0.833, 0, 999
19371, 1, 0.0022, 1, , ,0.0023, 0.4194, 9999, 9999
19372, 2, 0.0073, 1, , ,0.0073, 0.135, 9999, 9999
19471, 1, , 0.245, , ,0, 0.153, 0, 999
19472, 5, 0.002, 0.20145, , ,0, 0.1836, 0, 0.0986
19473, 3, 0.002, 0.20145, , ,0, 0.1836, 0, 0.0986
19602, 2, , 0.284, , ,0, 0.222, 0, 0.1241
19771, 1, 0.009, 1, , ,0.009, 0.166, 9999, 9999
19772, TW, 0.0073, 1, , ,0.0073, 0.135, 9999, 9999
19773, TW, 0.0022, 1, , ,0.0022, 0.4194, 9999, 9999
19971, 1, 0.0257, 0.833, , ,9999, 9999, 9999, 9999
19972, 2, 0.0257, 0.833, , ,9999, 9999, 9999, 9999
19973, 3, 0.0257, 0.833, , ,9999, 9999, 9999, 9999
19974, 4, 0.0257, 0.833, , ,9999, 9999, 9999, 9999
20401, 1, 0.0032, 0.187, , ,0, 0.098, 0, 999
21071, 2, 0.0073, 0.3, , ,0.0073, 0.135, 9999, 9999
21371, TW, 0.0092, 1, , ,0.0092, 0.1621, 9999, 9999
21791, 1, 0.0032, 0.833, , ,0.0032, 0.124, 9999, 9999
21871, 1, 0.0073, 1, , ,0.0073, 0.135, 9999, 9999
21872, 2, 0.0302, 1, , ,9999, 9999, 9999, 9999
21873, 1, 0.0204, 1.4518, , ,0.0204, 0.3306, 9999, 9999
21874, 1, 0.0032, 0.833, , ,0.0032, 0.124, 9999, 9999
22272, DW, 0.0022, 1, , ,0.0022, 0.4194, 9999, 9999
22273, DW, 0.0269, 1, , ,9999, 9999, 9999, 9999
22274, 2, 0.0204, 1, , ,0.0204, 0.3306, 9999, 9999
22275, 4, 0.0073, 1, , ,0.0073, 0.135, 9999, 9999
22276, 3, 0.0092, 1, , ,0.0092, 0.1621, 9999, 9999
22278, 1, 0.0204, 1, , ,0.0204, 0.3306, 9999, 9999
22292, 5, , 0.2, , ,0, 0.2, 0, 999
22371, 1, 0.0073, 1, , ,0.0073, 0.135, 9999, 9999
22471, 1, 0.0073, 1, , ,0.0073, 0.135, 9999, 9999
22472, 2, 0.0073, 1, , ,0.0073, 0.135, 9999, 9999
22473, 1, 0.0073, 0.833, , ,0.0073, 0.135, 9999, 9999
22474, 1, 0.0003, 1, , ,0, 0.2, 0, 999
22671, 1, , 0.252, , ,0, 0.179, 0, 0.116
22672, 2, , 0.252, , ,0, 0.179, 0, 0.116
22871, 1, 0.0269, 0.833, , ,9999, 9999, 9999, 9999
22872, 1, 0.0032, 1, , ,0.0032, 0.124, 9999, 9999
23071, 1, 0.2, 0.833, , ,0, 0.833, 0, 999
23682, 1, 0.0032, 1, , ,0.009, 0.166, 9999, 9999
23692, TW, 0.0032, 1, , ,0.0092, 0.1621, 9999, 9999
25605, 1, , 0.15, , ,0, 0.14, 0, 999
25674, 1, , 0.212, , ,0, 0.179, 0, 0.116
26732, 1, 0.0032, 1, , ,0.0032, 0.124, 9999, 9999
26771, 1, 0.009, 1, , ,0.009, 0.148, 9999, 9999
26773, 1, 0.009, 1, , ,0.009, 0.148, 9999, 9999
26971, 1, 0.002, 0.833, , ,0, 0.833, 0, 999
27071, 1, 0.0269, 1, , ,9999, 9999, 9999, 9999
27205, 5, , 0.31, , ,0, 0.27, 0, 999
27361, XX, , 0.833, , ,0, 0.833, 0, 999
27371, 1, 0.0073, 1, , ,0.0073, 0.135, 9999, 9999
27372, 2, 0.009, 1, , ,0.009, 0.166, 9999, 9999
27474, 1, , 0.238, , ,0, 0.215, 0, 0.1156
27475, 1, , 0.833, , ,0, 0.833, 0, 999
27771, 1, 0, 0.3, , ,0, 0.504, 9999, 9999
27772, 2, 0.0257, 0.833, , ,9999, 9999, 9999, 9999
27773, 3, 0.0257, 0.833, , ,9999, 9999, 9999, 9999
27774, 4, 0, 0.3, , ,0, 0.504, 9999, 9999
27971, 1, 0.0088, 0.833, , ,0, 0.833, 0, 999
28071, 1, 0.0204, 0.3, , ,0.0204, 0.3306, 9999, 9999
28071, 2, 0.0204, 0.833, , ,0.0204, 0.3306, 9999, 9999
28271, 1, 0.0092, 1, , ,0.0092, 0.1621, 9999, 9999
28471, 1, , 0.833, , ,0, 0.193, 0, 0.136
28571, 1, 0.0028, 0.27, , ,0, 0.195, 0, 0.135
28814, 2, 0.0032, 1, , ,0.0032, 0.124, 9999, 9999
28872, 1, 0.009, 1, , ,0.009, 0.148, 9999, 9999
28873, DW, 0.009, 1, , ,0.009, 0.148, 9999, 9999
28874, 1, 0.0077, 0.3, , ,0.0077, 0.1871, 9999, 9999
29671, ST, , 0.234, , ,0, 0.22, 0, 0.115
29672, CT, , 0.22, , ,0, 0.22, 0, 0.11
29673, 2, 0.005, 0.256, , ,0, 0.213, 0, 999
30671, 1, , 0.29, , ,0, 0.16, 0, 999
30671, 2, , 0.25, , ,0, 0.14, 0, 999
30871, 1, 0.0084, 0.833, , ,0, 0.833, 0, 999
31271, 1, 0.003, 0.3, , ,0, 0.19, 0, 0.11
31272, 1, 0.0019, 0.833, , ,0, 0.833, 0, 999
31273, 1, 0.0038, 0.0752, , ,0, 0.0752, 0, 999
32271, 1, 0.0269, 1, , ,9999, 9999, 9999, 9999
32272, 1, , 0.833, , ,0, 0.833, 0, 999
32405, 1, , 0.19, , ,0, 0.21, 0, 0.03
32472, 1, 0.0085, 0.833, , ,0, 0.833, 0, 999
32508, 1, 0.009, 1, , ,0.009, 0.148, 9999, 9999
32508, XX, 0.009, 0.833, , ,0.009, 0.148, 9999, 9999
32576, 8, 0.0269, 0.833, , ,9999, 9999, 9999, 9999
32577, 1, 0.0302, 0.833, , ,9999, 9999, 9999, 9999
33071, DW, 0.0252, 0.833, , ,9999, 9999, 9999, 9999
33072, 1, 0.0073, 1, , ,0.0073, 0.135, 9999, 9999
33361, XX, , 0.833, , ,0, 0.833, 0, 999
33971, TW, 0.0022, 1, , ,0.0022, 0.4194, 9999, 9999
34803, 1, 0.0032, 0.204, , ,0, 0.148, 0, 999
34871, 1, 0.0032, 0.833, , ,0, 0.833, 0, 999
...
 0            / end of Generator Sequence Data.  Begin Load Sequence Data
@!  
@!  I, ID, PNEG, QNEG, GRDFLG, PZERO, QZERO
@!  
@!  qry :  n/a
@!  
@!  
@!  qry :  temp NIE load scaled
@!  
70030, NI,,,,0,-0.138
70130, NI,,,,0,-0.276
70330, NI,,,,0,-0.276
70513, HL,,,,0,0
70514, HL,,,,0,0
70515, HL,,,,0,0
70516, HL,,,,0,0
71031, NI,,,,0.285,-0.114
71032, NI,,,,0,-0.276
71530, NI,,,,0.539,-0.209
72530, NI,,,,0,-0.276
74030, NI,,,,0,-0.276
74730, NI,,,,0,-0.529
75030, NI,,,,0,-0.276
75515, HL,,,,0,0
75516, HL,,,,0,0
75530, NI,,,,0.285,-0.113
75830, NI,,,,0,-0.276
76031, NI,,,,0.254,-0.096
76531, NI,,,,0.125,-0.216
76532, NI,,,,0,-0.303
77030, NI,,,,0.251,-0.141
77530, NI,,,,0.284,-0.114
78030, NI,,,,0,0
78530, NI,,,,0.283,-0.116
79030, NI,,,,0.283,-0.253
80030, NI,,,,0,-0.274
80531, NI,,,,0.126,-0.049
82530, NI,,,,0,-0.345
83030, NI,,,,0.296,-0.101
83530, NI,,,,0.281,-0.117
84030, NI,,,,0.274,-0.123
84430, NI,,,,0,-0.275
84530, NI,,,,0.278,-0.12
86330, NI,,,,0,-0.276
86530, NI,,,,0,-0.302
88030, NI,,,,0.284,-0.115
88530, NI,,,,0.3,-0.095
89330, NI,,,,0,-0.276
89530, NI,,,,0.277,-0.121
90530, NI,,,,0,-0.276
 0            / end of Load Sequence Data .  Begin zero sequence nontransformer branch data
@!  
@!  qry :  Sequence File Zero Sequence Branch Data
@!  
@!  I, J, ICKT, RLINZ, XLINZ, BCHZ, GI, BI, GJ, BJ, IPR, SCTYP
@!  
@!  
11, 42404, 1, 0, 0.001, 0, , , , , , 
12, 46504, 1, 0.02, 0.02, 0.001, , , , , , 
12, 46504, 2, 0.02, 0.02, 0.002, , , , , , 
1021, 2121, 1, 0.051, 0.253, 0.0035, , , , , , 
1021, 2361, 1, 0.09, 0.45, 0.0077, , , , , , 
1021, 3541, 1, 0.018, 0.126, 0.0022, , , , , , 
@! 1021, 10210, 1, 0, 0.0001, 0, , , , , , 
@! 1021, 10261, 1, 0, 0.0001, 0, , , , , , 
1041, 5481, 1, 0.009, 0.043, 0.0006, , , , , , 
@! 1042, 1052, 1, 0, 0.0001, 0, , , , , , 
1042, 1072, 1, 0.0004, 0.0002, 0, , , , , , 
1042, 3202, 1, 0.0108, 0.0788, 0, , , , , , 
1042, 4722, 1, 0.004, 0.025, 0.2235, , , , , , 
1042, 10422, 1, 0.001, 0.001, 0, , , , , , 
@! 1052, 1062, 1, 0, 0.0001, 0, , , , , , 
1052, 2852, 1, 0.001, 0.001, 0, , , , , , 
1052, 3202, 2, 0.011, 0.079, 0, , , , , , 
1061, 10619, 1, 0.0006, 0.0029, 0.0001, , , , , , 
@! 1062, 1072, 1, 0, 0.0001, 0, , , , , , 
1071, 2231, 1, 0.0219, 0.1098, 0.0016, , , , , , 
1071, 2361, 1, 0.105, 0.525, 0.0073, , , , , , 
1071, 4941, 1, 0.125, 0.626, 0.0088, , , , , , 
1081, 32810, 1, 0.0088, 0.0494, 0.0008, , , , , , 
1091, 2861, 1, 0.0061, 0.003, 0.0346, , , , , , 
1091, 3091, 1, 0.004689, 0.004059, 0.118319, , , , , , 
1101, 2161, 1, 0.0055, 0.0274, 0.0004, , , , , , 
1121, 1301, 1, 0.0098, 0.0705, 0.0175, , , , , , 
1121, 1541, 1, 0.049, 0.315, 0.0059, , , , , , 
1121, 4901, 2, 0.0063, 0.0315, 0.0004, , , , , , 
1122, 1742, 1, 0.023, 0.165, 0, , , , , , 
1122, 3642, 1, 0.017, 0.121, 0, , , , , , 
1131, 2131, 1, 0.014, 0.007, 0.0752, , , , , , 
@! 1131, 11310, 1, 0, 0.0001, 0, , , , , , 
1131, 31911, 1, 0.0142, 0.1018, 0.0018, , , , , , 
1141, 3501, 1, 0.096, 0.491, 0.0069, , , , , , 
1141, 4941, 1, 0.034, 0.243, 0.0191, , , , , , 
@! 1141, 11461, 1, 0, 0.0001, 0, , , , , , 
1161, 1781, 1, 0.0014, 0.0069, 0.0001, , , , , , 
1161, 3461, 1, 0.052, 0.372, 0.0065, , , , , , 
1161, 3901, 1, 0.0432, 0.311, 0.0055, , , , , , 
1161, 5051, 3, 0.0022, 0.0008, 0, , , , , , 
1161, 5071, 4, 0.0022, 0.0008, 0, , , , , , 
1161, 17810, 2, 0.0014, 0.0069, 0.0001, , , , , , 
1181, 1861, 1, 0.118, 0.591, 0.0083, , , , , , 
1181, 2821, 1, 0.0481, 0.3461, 0.0061, , , , , , 
1181, 4221, 1, 0.103, 0.741, 0.013, , , , , , 
1181, 4961, 1, 0.03, 0.21, 0.0037, , , , , , 
1181, 4961, 2, 0.037, 0.266, 0.0104, , , , , , 
1201, 2561, 1, 0.019, 0.0067, 0, , , , , , 
1201, 3781, 1, 0.0103, 0.0037, 0, , , , , , 
@! 1211, 12111, 1, 0, 0.0001, 0, , , , , , 
1212, 1602, 1, 0.007788, 0.048, 0.0186, , , , , , 
1212, 3332, 1, 0.007, 0.045, 0.013, , , , , , 
1221, 1901, 1, 0.069, 0.344, 0.0048, , , , , , 
1221, 4481, 1, 0.07, 0.35, 0.0049, , , , , , 
1231, 1841, 1, 0.0815, 0.029, 0.1366, , , , , , 
1251, 2361, 1, 0.039, 0.28, 0.0049, , , , , , 
1251, 52219, 1, 0.029, 0.207, 0.0037, , , , , , 
1271, 1491, 1, 0.017, 0.122, 0.0022, , , , , , 
1271, 2041, 1, 0.0264, 0.19, 0.0034, , , , , , 
1281, 2221, 1, 0.0748, 0.3761, 0.0053, , , , , , 
1301, 17411, 1, 0.0137, 0.0997, 0.026, , , , , , 
1321, 13219, 1, 0.0012, 0.0069, 0.0001, , , , , , 
1331, 2041, 1, 0.04, 0.209, 0.003, , , , , , 
1331, 4001, 1, 0.146, 0.762, 0.0107, , , , , , 
1341, 1701, 1, 0.0539, 0.3879, 0.0068, , , , , , 
1341, 5191, 1, 0.052, 0.316, 0.0046, , , , , , 
1351, 4081, 1, 0.026, 0.123, 0.035, , , , , , 
1351, 4201, 1, 0.019, 0.073, 0.0392, , , , , , 
1361, 2001, 1, 0.104, 0.201, 0.0051, , , , , , 
1361, 2161, 1, 0.0178, 0.1278, 0.0023, , , , , , 
1371, 1451, 1, 0.001, 0.001, 0, , , , , , 
1381, 4721, 1, 0.0046, 0.0233, 0.0003, , , , , , 
@! 1381, 13810, 1, 0, 0.0001, 0, , , , , , 
1401, 1661, 1, 0.178, 0.343, 0.0159, , , , , , 
1401, 4041, 1, 0.043, 0.306, 0.0054, , , , , , 
@! 1401, 14010, 1, 0, 0.0001, 0, , , , , , 
1411, 3081, 1, 0.016, 0.008, 0.0899, , , , , , 
1411, 3081, 2, 0.016, 0.008, 0.0899, , , , , , 
1421, 4511, 1, 0.0281, 0.0152, 0, , , , , , 
1421, 4651, 1, 0.0415, 0.0226, 0, , , , , , 
1431, 3261, 1, 0.0346, 0.2488, 0.0044, , , , , , 
1441, 1501, 1, 0.0071, 0.0357, 0.0005, , , , , , 
1441, 2225, 1, 0.071, 0.356, 0.005, , , , , , 
@! 1441, 14461, 1, 0, 0.0001, 0, , , , , , 
1441, 15010, 2, 0.0068, 0.0344, 0.0005, , , , , , 
1441, 47210, 1, 0.0731, 0.3627, 0.0051, , , , , , 
1451, 2041, 1, 0.003, 0.01, 0.11, , , , , , 
1461, 14619, 1, 0.001, 0.005, 0.0001, , , , , , 
1471, 1810, 1, 0.002455845, 0.01273638, 0, , , , , , 
1471, 1810, 2, 0.002455845, 0.01273638, 0, , , , , , 
1472, 2562, 1, 0.001, 0.002, 0.332, , , , , , 
1481, 2001, 1, 0.019, 0.131, 0.0112, , , , , , 
1481, 3401, 1, 0.008, 0.035, 0.0006, , , , , , 
1511, 52610, 1, 0.021, 0.0465, 0.001162, , , , , , 
1521, 2401, 1, 0.025, 0.012, 0.1384, , , , , , 
1522, 2042, 1, 0.003, 0.016, 0, , , , , , 
1522, 5462, 1, 0.006, 0.042, 0, , , , , , 
1531, 3801, 1, 0.009, 0.047, 0.0007, , , , , , 
1531, 5481, 1, 0.049, 0.249, 0.0036, , , , , , 
1541, 5291, 1, 0.018, 0.126, 0.0022, , , , , , 
1551, 16011, 1, 0.02, 0.137, 0.0024, , , , , , 
1561, 2861, 1, 0.003, 0.013, 0, , , , , , 
1561, 2861, 2, 0.003, 0.015, 0, , , , , , 
1571, 5191, 1, 0.0955, 0.4804, 0.0067, , , , , , 
1581, 4491, 1, 0.0059, 0.0265, 0.0004, , , , , , 
1581, 5521, 1, 0.0099, 0.0035, 0, , , , , , 
1601, 1611, 1, 0.0468, 0.337, 0.0059, , , , , , 
1601, 2225, 1, 0.061, 0.438, 0.0179, , , , , , 
1601, 3881, 2, 0.0089, 0.0641, 0.0012, , , , , , 
@! 1601, 16011, 1, 0, 0.0001, 0, , , , , , 
1602, 3202, 1, 0.016, 0.096, 0.0457, , , , , , 
1611, 3301, 1, 0.0319, 0.2296, 0.004, , , , , , 
@! 1611, 16110, 1, 0, 0.001, 0, , , , , , 
1621, 3061, 1, 0.008, 0.037, 0.0006, , , , , , 
1621, 3221, 1, 0.023, 0.163, 0.004, , , , , , 
1631, 2671, 1, 0.01, 0.065, 0.0019, , , , , , 
1631, 5041, 1, 0.035, 0.175, 0.0025, , , , , , 
1631, 10619, 1, 0.022, 0.155, 0.0027, , , , , , 
1641, 1821, 1, 0.036, 0.258, 0.0045, , , , , , 
1641, 2361, 1, 0.084, 0.605, 0.0106, , , , , , 
1641, 2781, 1, 0.038, 0.19, 0.0027, , , , , , 
1641, 2781, 2, 0.031, 0.156, 0.0022, , , , , , 
1641, 2781, 3, 0.031, 0.156, 0.0022, , , , , , 
1641, 4951, 1, 0.055, 0.237, 0.0883, , , , , , 
@! 1641, 16411, 1, 0, 0.0001, 0, , , , , , 
@! 1641, 16461, 1, 0, 0.0001, 0, , , , , , 
1641, 22811, 1, 0.141, 0.782, 0.0118, , , , , , 
1641, 50019, 1, 0.137, 0.687, 0.0096, , , , , , 
1642, 2522, 1, 0.037, 0.272, 0, , , , , , 
1642, 4522, 1, 0.038, 0.273, 0, , , , , , 
1642, 5172, 1, 0.014, 0.085, 0.0404, , , , , , 
1651, 5261, 1, 0.025, 0.124, 0.0018, , , , , , 
1651, 5281, 1, 0.036, 0.175, 0.0025, , , , , , 
1661, 1821, 1, 0.157, 0.788, 0.011, , , , , , 
1661, 2281, 1, 0.076, 0.382, 0.0054, , , , , , 
@! 1661, 16661, 1, 0, 0.0001, 0, , , , , , 
1661, 16662, 1, 0, 0.01, 0, , , , , , 
1671, 1941, 1, 0.001, 0.004, 0, , , , , , 
1681, 3221, 1, 0.051, 0.363, 0.0064, , , , , , 
1681, 3881, 1, 0.004, 0.028, 0.0005, , , , , , 
1691, 5131, 1, 0.0266, 0.0117, 0, , , , , , 
1691, 51319, 1, 0.0087, 0.0034, 0, , , , , , 
1701, 1761, 1, 0.0123, 0.0749, 0.0011, , , , , , 
1701, 1981, 1, 0.097, 0.694, 0.0121, , , , , , 
1701, 5041, 1, 0.241, 0.482, 0.0154, , , , , , 
@! 1701, 17010, 1, 0, 0.0001, 0, , , , , , 
@! 1701, 17061, 1, 0, 0.0001, 0, , , , , , 
1701, 28712, 2, 0.075975, 0.307423, 0.004466, , , , , , 
1711, 3421, 2, 0.0033, 0.0017, 0.0187, , , , , , 
1721, 2161, 1, 0.025, 0.178, 0.0031, , , , , , 
1721, 2391, 1, 0.029, 0.203, 0.0036, , , , , , 
1721, 5381, 1, 0.029, 0.205, 0.0036, , , , , , 
1721, 14619, 1, 0.117, 0.6, 0.0084, , , , , , 
@! 1721, 17261, 1, 0, 0.0001, 0, , , , , , 
1731, 3421, 1, 0.0033, 0.0017, 0.0187, , , , , , 
1741, 1851, 1, 0.01, 0.0186, 0.0404, , , , , , 
1741, 4511, 1, 0.0173, 0.0094, 0, , , , , , 
@! 1741, 17411, 1, 0, 0.0001, 0, , , , , , 
1741, 51319, 1, 0.0003, 0.0014, 0.0001, , , , , , 
1742, 2202, 1, 0.0175, 0.128, 0, , , , , , 
1742, 3122, 1, 0.004, 0.002, 0, , , , , , 
@! 1742, 17431, 2, 0, 0.0001, 0, , , , , , 
@! 1742, 17462, 1, 0, 0.0001, 0, , , , , , 
1811, 3431, 1, 0.001, 0.004, 0.0396, , , , , , 
1811, 3471, 1, 0.001, 0.001, 0.0044, , , , , , 
1821, 35011, 1, 0.172, 0.888, 0.0125, , , , , , 
1841, 3641, 1, 0.011, 0.075, 0.0013, , , , , , 
1841, 5291, 1, 0.025, 0.141, 0.0029, , , , , , 
1841, 5501, 1, 0.051, 0.311, 0.0045, , , , , , 
1851, 24819, 1, 0.006, 0.0302, 0.0005, , , , , , 
1861, 2521, 1, 0.01, 0.047, 0.0007, , , , , , 
1861, 2521, 2, 0.009, 0.046, 0.0007, , , , , , 
1861, 10619, 1, 0.0325, 0.2341, 0.0041, , , , , , 
1871, 2581, 1, 0.014, 0.043, 0.0029, , , , , , 
1871, 20411, 1, 0.005, 0.002, 0, , , , , , 
1881, 2881, 1, 0.077, 0.386, 0.0054, , , , , , 
1881, 3281, 1, 0.083, 0.503, 0.0072, , , , , , 
1881, 4021, 1, 0.0354, 0.2545, 0.0045, , , , , , 
1901, 3341, 1, 0.015, 0.075, 0.0011, , , , , , 
1901, 3341, 2, 0.015, 0.073, 0.0011, , , , , , 
1901, 50619, 1, 0.048, 0.2416, 0.0034, , , , , , 
1921, 4341, 1, 0.0063, 0.0316, 0.0004, , , , , , 
1921, 4351, 2, 0.006, 0.0302, 0.0004, , , , , , 
1921, 4721, 1, 0.019, 0.093, 0.0013, , , , , , 
1921, 5481, 1, 0.0481, 0.244, 0.0034, , , , , , 
1931, 4371, 1, 0.07, 0.347, 0.0053, , , , , , 
1931, 4981, 1, 0.101, 0.195, 0.0049, , , , , , 
1941, 2401, 1, 0.033, 0.197, 0.0029, , , , , , 
1941, 4201, 1, 0.055, 0.336, 0.0048, , , , , , 
1941, 4391, 1, 0.004, 0.018, 0.0442, , , , , , 
1951, 1661, 1, 0.071, 0.309, 0.0659, , , , , , 
1961, 1921, 1, 0.046, 0.208, 0.0029, , , , , , 
1961, 3201, 1, 0.021, 0.102, 0.0015, , , , , , 
1971, 2731, 1, 0.0032, 0.0014, 0, , , , , , 
1981, 2821, 1, 0.018, 0.124, 0.0022, , , , , , 
1981, 79016, 1, 0.075, 0.3774, 0.0053, , , , , , 
1991, 3641, 1, 0.039, 0.017, 0, , , , , , 
2001, 2141, 1, 0.054, 0.38, 0.0151, , , , , , 
2001, 5441, 1, 0.018, 0.115, 0.2085, , , , , , 
2002, 2742, 1, 0.009, 0.049, 0.0392, , , , , , 
2002, 3203, 1, 0.0297, 0.1824, 0.0873, , , , , , 
2021, 2591, 1, 0.002, 0.001, 0.0183, , , , , , 
2021, 3091, 1, 0.0216, 0.1216, 0.0018, , , , , , 
2041, 2791, 1, 0.018, 0.125, 0.0022, , , , , , 
2041, 4621, 1, 0.03, 0.17, 0.0027, , , , , , 
@! 2041, 20411, 1, 0, 0.0001, 0, , , , , , 
@! 2041, 20416, 1, , 0.0001, , , , , , , 
@! 2042, 2052, 1, 0, 0.0001, 0, , , , , , 
2042, 2072, 1, 0.0004, 0.0002, 0.098, , , , , , 
2042, 2072, 2, 0.0003, 0.0002, 0.0804, , , , , , 
2042, 2562, 1, 0.0016, 0.0115, 0, , , , , , 
2042, 2972, 1, 0.0012, 0.0006, 0, , , , , , 
2052, 2563, 2, 0.0016, 0.0115, 0, , , , , , 
2052, 5462, 2, 0.0075, 0.0549, 0, , , , , , 
2090, 2111, 1, 0.004, 0.002, 0, , , , , , 
2091, 1831, 1, 0.073, 0.439, 0.0061, , , , , , 
@! 2091, 2090, 1, 0, 0.0001, 0, , , , , , 
2091, 2171, 1, 0.017, 0.007, 0.1299, , , , , , 
2091, 4951, 1, 0.08091, 0.15551, 0.07953, , , , , , 
2091, 20900, 1, 0.001, 0.001, 0, , , , , , 
2101, 4061, 1, 0.0205, 0.103, 0.0015, , , , , , 
2101, 35211, 1, 0.0459, 0.2307, 0.0033, , , , , , 
2121, 2361, 1, 0.048, 0.238, 0.0034, , , , , , 
@! 2121, 21261, 1, 0, 0.0001, 0, , , , , , 
2141, 6931, 1, 0.0136, 0.0979, 0.0018, , , , , , 
@! 2161, 21661, 1, 0, 0.0001, 0, , , , , , 
2181, 1491, 1, 0.015, 0.108, 0.0019, , , , , , 
2181, 2841, 1, 0.053, 0.266, 0.0038, , , , , , 
2181, 3521, 1, 0.051, 0.361, 0.0063, , , , , , 
2181, 4691, 1, 0.008, 0.037, 0.0122, , , , , , 
2202, 3342, 1, 0.025, 0.183, 0, , , , , , 
2202, 3842, 1, 0.0129, 0.0941, 0, , , , , , 
2202, 3852, 2, 0.0154, 0.1126, 0, , , , , , 
2202, 5202, 1, 0.011, 0.0788, 0, , , , , , 
2204, 3944, 1, 0.0455, 0.1453, 0.7486, 0, -0.3266, 0, 0, , 
@! 2221, 2225, 1, 0, 0.0001, 0, , , , , , 
2221, 3881, 1, 0.07, 0.346, 0.0053, , , , , , 
2221, 3891, 1, 0.029, 0.144, 0.0022, , , , , , 
@! 2221, 22261, 1, 0, 0.0001, 0, , , , , , 
2241, 22419, 1, 0.0333, 0.1674, 0.0023, , , , , , 
2251, 2571, 1, 0.005, 0.003, 0.011, , , , , , 
2251, 3421, 1, 0.0078, 0.0039, 0.0443, , , , , , 
2261, 3381, 1, 0.029, 0.187, 0.003, , , , , , 
@! 2261, 22612, 1, , 0.0001, , , , , , , 
@! 2281, 22811, 1, , 0.0001, , , , , , , 
@! 2281, 22861, 1, 0, 0.0001, 0, , , , , , 
2301, 23019, 1, 0.0002, 0.0007, 0.0001, , , , , , 
2321, 3581, 1, 0.0219, 0.1098, 0.0016, , , , , , 
2321, 4071, 1, 0.0137, 0.0687, 0.001, , , , , , 
2321, 28710, 1, 0.07, 0.363, 0.0315, , , , , , 
2361, 23610, 1, 0.041762, 0.4245, 0.27, , , , , , 
2391, 5301, 1, 0.034, 0.241, 0.0042, , , , , , 
2401, 5321, 1, 0.039, 0.216, 0.0052, , , , , , 
2421, 3471, 1, 0.001, 0.004, 0.033, , , , , , 
2421, 3471, 2, 0.001, 0.004, 0.033, , , , , , 
@! 2481, 2491, 1, 0, 0.0001, 0, , , , , , 
2481, 24819, 1, 0.0137, 0.0687, 0.001, , , , , , 
2521, 2681, 1, 0.0273, 0.1372, 0.0019, , , , , , 
2521, 4981, 1, 0.138, 0.694, 0.0097, , , , , , 
2521, 5341, 1, 0.089, 0.444, 0.0062, , , , , , 
2521, 66094, 1, 0.06, 0.298, 0.0042, , , , , , 
2522, 3522, 1, 0.0462, 0.3388, 0, , , , , , 
2522, 5042, 1, 0.024, 0.173, 0, , , , , , 
@! 2541, 2551, 1, 0, 0.0001, 0, , , , , , 
2541, 2941, 1, 0.0099, 0.0043, 0, , , , , , 
2541, 5231, 1, 0.0068, 0.0034, 0.0388, , , , , , 
2551, 2951, 1, 0.0058, 0.0029, 0.0332, , , , , , 
2551, 3081, 1, 0.025, 0.0105, 0, , , , , , 
@! 2561, 2571, 1, 0, 0.0001, 0, , , , , , 
@! 2561, 2581, 1, 0, 0.0001, 0, , , , , , 
2561, 3781, 1, 0.0391, 0.0161, 0, , , , , , 
2561, 4491, 1, 0.0078, 0.0371, 0.0006, , , , , , 
@! 2561, 25674, 1, , 0.0001, , , , , , , 
@! 2562, 2563, 1, 0, 0.0001, 0, , , , , , 
2562, 2962, 1, 0.0004, 0.0002, 0, , , , , , 
2562, 5022, 1, 0.0034, 0.0018, 0, , , , , , 
2563, 4242, 1, 0.0073, 0.0098, 0, , , , , , 
2571, 2701, 1, 0.0383, 0.1922, 0.0027, , , , , , 
2571, 2761, 1, 0.0653, 0.0269, 0, , , , , , 
2571, 4401, 1, 0.0091, 0.0032, 0, , , , , , 
2571, 5031, 1, 0.0833, 0.4138, 0.0058, , , , , , 
2691, 4501, 1, 0.017, 0.083, 0.0012, , , , , , 
2701, 5031, 1, 0.0446, 0.219, 0.0031, , , , , , 
2721, 27219, 1, 0.0027, 0.0137, 0.0002, , , , , , 
2741, 3261, 1, 0.0773, 0.5564, 0.0097, , , , , , 
2741, 5441, 1, 0.0184, 0.1324, 0.0024, , , , , , 
2741, 5441, 2, 0.0203, 0.1461, 0.0026, , , , , , 
2741, 5451, 1, 0.031, 0.22, 0.0039, , , , , , 
2742, 3342, 1, 0.0291, 0.2132, 0, , , , , , 
2742, 3642, 1, 0.021, 0.148, 0, , , , , , 
2742, 3662, 1, 0.001, 0.001, 0, , , , , , 
2761, 4101, 1, 0.025, 0.011, 0.0028, , , , , , 
2771, 1211, 1, 0.002402, 0.001822, 0.0014, , , , , , 
2781, 2090, 1, 0.02875, 0.0122, 0.36265, 0, 0.0004444, 0, -0.18, , 
2781, 4951, 1, 0.00772, 0.003, 0.0674, , , , , , 
2791, 4501, 1, 0.042, 0.301, 0.0053, , , , , , 
2801, 28019, 1, 0.0106, 0.0535, 0.0007, , , , , , 
@! 2821, 28261, 1, 0, 0.0001, 0, , , , , , 
2841, 2691, 1, 0.038, 0.194, 0.0027, , , , , , 
2841, 3821, 1, 0.061, 0.369, 0.0185, , , , , , 
2841, 4221, 1, 0.015, 0.074, 0.0011, , , , , , 
2841, 4221, 2, 0.017, 0.087, 0.0013, , , , , , 
2841, 4221, 3, 0.012, 0.072, 0.001, , , , , , 
2841, 28411, 1, 0.001, 0.002, 0.022, , , , , , 
2842, 3522, 1, 0.0137, 0.0998, 0, , , , , , 
2842, 3852, 1, 0.018, 0.13, 0, , , , , , 
2852, 4722, 1, 0.0022, 0.0035, , , , , , , 
2861, 3091, 1, 0.018, 0.0962, 0.0014, , , , , , 
2861, 3091, 2, 0.018, 0.0962, 0.0014, , , , , , 
2861, 4281, 1, 0.0039, 0.0014, 0, , , , , , 
2861, 4281, 2, 0.0037, 0.0013, 0, , , , , , 
2861, 5331, 1, 0.005, 0.021, 0.224, , , , , , 
2861, 27219, 1, 0.0198, 0.1148, 0.0017, , , , , , 
2870, 4091, 1, 0.007198, 0.009727, 0.0848, , , , , , 
@! 2870, 28712, 1, 0, 0.0001, 0, , , , , , 
@! 2871, 2870, 1, 0, 0.0001, 0, , , , , , 
2871, 28019, 1, 0.001, 0.003, 0.0023, , , , , , 
@! 2881, 28810, 1, 0, 0.0001, 0, , , , , , 
2941, 4651, 1, 0.025, 0.0102, 0, , , , , , 
2951, 3081, 1, 0.0087, 0.0044, 0.0498, , , , , , 
3061, 3881, 1, 0.05, 0.246, 0.0038, , , , , , 
@! 3081, 3091, 1, 0, 0.0001, 0, , , , , , 
3081, 3871, 1, 0.0177, 0.0063, 0, , , , , , 
3082, 3122, 1, 0.004, 0.002, 0, , , , , , 
3091, 5331, 1, 0.003, 0.013, 0.14, , , , , , 
3101, 31019, 1, 0.0004, 0.0021, 0.0001, , , , , , 
3122, 5122, 1, 0.001, 0.001, 0, , , , , , 
3190, 5261, 2, 0.009, 0.065, 0.0012, , , , , , 
@! 3191, 3190, 1, 0, 0.0001, 0, , , , , , 
@! 3191, 31911, 1, 0, 0.0001, 0, , , , , , 
3191, 52610, 1, 0.01, 0.45, 0.0009, , , , , , 
3192, 3332, 1, 0.016, 0.115, 0.0139, , , , , , 
@! 3192, 31920, 1, 0.001, 0.001, 0.0001, , , , , , 
@! 3201, 3209, 1, 0, 0.0001, 0, , , , , , 
3201, 14619, 1, 0.044, 0.265, 0.0038, , , , , , 
@! 3202, 3203, 1, 0, 0.0001, 0, , , , , , 
3203, 4722, 1, 0.009, 0.06, 0, , , , , , 
3209, 3531, 1, 0.022, 0.106, 0.0015, , , , , , 
3209, 6931, 1, 0.066, 0.469, 0.0082, , , , , , 
3221, 3201, 1, 0.0187, 0.1346, 0.0024, , , , , , 
3221, 3209, 2, 0.033, 0.172, 0.0024, , , , , , 
3221, 3961, 1, 0.009, 0.054, 0.0008, , , , , , 
3221, 3961, 2, 0.009, 0.054, 0.0008, , , , , , 
3221, 4021, 1, 0.046, 0.331, 0.0058, , , , , , 
3241, 3841, 1, 0.048, 0.292, 0.0042, , , , , , 
3241, 4081, 1, 0.02, 0.121, 0.0018, , , , , , 
@! 3241, 32461, 1, 0, 0.0001, 0, , , , , , 
3251, 5281, 1, 0.008167, 0.005129, 0.0028, , , , , , 
@! 3261, 32661, 1, 0, 0.0001, 0, , , , , , 
3281, 3541, 1, 0.025, 0.124, 0.0018, , , , , , 
3281, 4261, 1, 0.0917, 0.4611, 0.0065, , , , , , 
3281, 5091, 1, 0.0064, 0.0454, 0.0008, , , , , , 
@! 3281, 32810, 1, 0, 0.0001, 0, , , , , , 
3282, 3202, 1, 0.027, 0.256, 0.0725, , , , , , 
3282, 4942, 1, 0.0415, 0.2778, 0, , , , , , 
3282, 34620, 1, 0.031, 0.216, 0.0265, , , , , , 
3301, 43619, 1, 0.0355, 0.2556, 0.0045, , , , , , 
3321, 4221, 1, 0.0166, 0.0837, 0.0012, , , , , , 
3330, 28810, 1, 0.018636, 0.011, 0.186, , , , , , 
3331, 1311, 1, 0.00843, 0.008149, 0, , , , , , 
@! 3331, 3330, 1, 0, 0.0001, 0, , , , , , 
3341, 3261, 1, 0.094, 0.471, 0.0066, , , , , , 
3352, 3842, 1, 0.01156, 0.036769, 0.106281, , , , , , 
3352, 5462, 1, 0.005, 0.034, 0.096, , , , , , 
3381, 4001, 1, 0.08508, 0.212, 0.005716, , , , , , 
3381, 23019, 1, 0.051, 0.347, 0.0058, , , , , , 
3401, 5441, 1, 0.001438, 0.001243, 0.038573, , , , , , 
3421, 4101, 1, 0.006, 0.003, 0.0028, , , , , , 
3421, 4401, 1, 0.0126, 0.0045, 0, , , , , , 
3431, 3471, 1, 0.001, 0.004, 0.033, , , , , , 
3461, 3190, 1, 0.033, 0.201, 0.003, , , , , , 
3461, 3481, 1, 0.001, 0.003, 0, , , , , , 
3461, 4681, 1, 0.072, 0.435, 0.0362, , , , , , 
3461, 5141, 1, 0.004, 0.022, 0.0004, , , , , , 
3461, 5281, 1, 0.107, 0.541, 0.0076, , , , , , 
3461, 5281, 2, 0.068, 0.484, 0.0087, , , , , , 
3461, 51410, 2, 0.004, 0.022, 0.0004, , , , , , 
3462, 3192, 1, 0.0089, 0.062, 0.0506, , , , , , 
3462, 3192, 2, 0.003682, 0.002901, 0.89696, , , , , , 
3462, 3940, 1, 0.002, 0.001, 0, , , , , , 
3462, 3942, 2, 0.002, 0.001, 0, , , , , , 
3462, 5142, 2, 0.0012, 0.0087, 0, , , , , , 
@! 3462, 34620, 1, 0, 0.0001, 0, , , , , , 
3472, 3842, 1, 0.008, 0.0215, 0.1962, , , , , , 
3472, 30820, 1, 0.0028, 0.0143, 0.1788, , , , , , 
3491, 4961, 1, 0.049, 0.239, 0.013, , , , , , 
3501, 4001, 1, 0.1262, 0.635, 0.0089, , , , , , 
3501, 4701, 1, 0.043, 0.213, 0.003, , , , , , 
@! 3501, 35011, 1, , 0.0001, , , , , , , 
3511, 4001, 1, 0.063, 0.032, 0.3596, , , , , , 
3521, 4061, 1, 0.0355, 0.1784, 0.0025, , , , , , 
3521, 4781, 1, 0.1023, 0.5147, 0.0072, , , , , , 
@! 3521, 35211, 1, 0, 0.0001, 0, , , , , , 
@! 3521, 35261, 1, 0, 0.0001, 0, , , , , , 
3522, 5462, 1, 0.026, 0.189, 0, , , , , , 
3541, 3901, 1, 0.0127, 0.0879, 0.0015, , , , , , 
3541, 4681, 1, 0.079, 0.393, 0.0055, , , , , , 
3561, 3491, 1, 0.062, 0.303, 0.0139, , , , , , 
3561, 35211, 1, 0.1102, 0.5544, 0.0077, , , , , , 
3561, 35611, 1, 0.001, 0.001, 0.0056, , , , , , 
@! 3561, 35661, 1, 0, 0.0001, 0, , , , , , 
3571, 4481, 1, 0.077, 0.548, 0.0096, , , , , , 
3571, 22419, 1, 0.01, 0.072, 0.0013, , , , , , 
3581, 3591, 1, 0.028, 0.167, 0.0024, , , , , , 
3581, 5361, 1, 0.095, 0.477, 0.0088, , , , , , 
3581, 28019, 1, 0.1029, 0.5266, 0.0074, , , , , , 
@! 3581, 35861, 1, 0, 0.0001, 0, , , , , , 
3581, 35862, 1, 0, 0.01, 0, , , , , , 
3581, 89516, 1, 0.061, 0.306, 0.0043, , , , , , 
3591, 5191, 1, 0.074, 0.452, 0.0065, , , , , , 
3601, 39610, 1, 0.0057, 0.0021, 0, , , , , , 
3611, 39610, 2, 0.0058, 0.0021, 0, , , , , , 
3621, 5301, 1, 0.029, 0.143, 0.002, , , , , , 
@! 3621, 36210, 1, 0, 0.0001, 0, , , , , , 
@! 3641, 36411, 1, 0, 0.0001, 0, , , , , , 
3651, 3471, 1, 0.001, 0.004, 0.044, , , , , , 
3651, 3471, 2, 0.001, 0.004, 0.044, , , , , , 
3681, 3471, 1, 0.001, 0.001, 0.0088, , , , , , 
3681, 3471, 2, 0.001, 0.001, 0.0088, , , , , , 
3751, 4651, 1, 0.0073, 0.0036, 0.0415, , , , , , 
3751, 5231, 1, 0.0034, 0.0017, 0.0194, , , , , , 
3781, 4211, 1, 0.0099, 0.0041, 0, , , , , , 
3781, 5521, 1, 0.003, 0.0011, 0, , , , , , 
3801, 3531, 1, 0.009, 0.042, 0.0006, , , , , , 
@! 3841, 3851, 1, 0, 0.0001, 0, , , , , , 
3841, 27219, 1, 0.0049, 0.0274, 0.0004, , , , , , 
@! 3842, 3852, 1, 0, 0.0001, 0, , , , , , 
3842, 4943, 1, 0.0489, 0.3271, 0, , , , , , 
3851, 4621, 1, 0.019, 0.081, 0.0103, , , , , , 
3851, 4741, 1, 0.015, 0.085, 0.0015, , , , , , 
3851, 13219, 1, 0.069, 0.4208, 0.0061, , , , , , 
3852, 5202, 1, 0.0284, 0.2119, 0, , , , , , 
@! 3861, 3871, 1, 0, 0.0001, 0, , , , , , 
3861, 4651, 1, 0.0276, 0.0124, 0, , , , , , 
3861, 4651, 2, 0.0117, 0.0042, 0, , , , , , 
3871, 5131, 1, 0.0258, 0.0113, 0, , , , , , 
3901, 3981, 1, 0.0019, 0.0096, 0.0001, , , , , , 
3901, 3991, 2, 0.0019, 0.0096, 0.0001, , , , , , 
@! 3934, 3944, 1, 0, 0.0001, 0, , , , , , 
@! 3934, 3954, 1, 0, 0.0001, 0, , , , , , 
3934, 4384, 1, 0.017, 0.08, 0.3734, , , , , , 
@! 3940, 3942, 1, 0, 0.0001, 0, , , , , , 
3941, 52219, 1, 0.012, 0.083, 0.0015, , , , , , 
3942, 4522, 1, 0.01, 0.024, 0.0153, , , , , , 
@! 3944, 3954, 1, 0, 0.0001, 0, , , , , , 
3961, 5181, 1, 0.00159, 0.001206, 0.001206, , , , , , 
3961, 5181, 2, 0.00137, 0.001039, 0.018757, , , , , , 
@! 3961, 39610, 1, 0, 0.0001, 0, , , , , , 
@! 4001, 40061, 1, 0, 0.0001, 0, , , , , , 
4041, 5241, 1, 0.023, 0.115, 0.0016, , , , , , 
4041, 5251, 2, 0.021, 0.102, 0.0411, , , , , , 
@! 4041, 40461, 1, 0, 0.0001, 0, , , , , , 
@! 4041, 40462, 1, 0, 0.0001, 0, , , , , , 
4111, 1801, 1, 0.032, 0.166, 0.0038, , , , , , 
4111, 17411, 1, 0.008, 0.004, 0.0429, , , , , , 
4201, 4481, 1, 0.1061, 0.588, 0.0084, , , , , , 
4201, 13219, 1, 0.0273, 0.1662, 0.0024, , , , , , 
4211, 4651, 1, 0.0104, 0.0043, 0, , , , , , 
4242, 4462, 1, 0.0028, 0.0037, 0, , , , , , 
4361, 43619, 1, 0.03, 0.151, 0.0022, , , , , , 
4371, 4041, 1, 0.038, 0.192, 0.0027, , , , , , 
4382, 5172, 1, 0.005, 0.031, 0, , , , , , 
4384, 5464, 1, 0.028, 0.088, 0.453, , , , , , 
4391, 4481, 1, 0.093, 0.562, 0.0652, , , , , , 
4441, 50619, 1, 0.0611, 0.3074, 0.0043, , , , , , 
4461, 4651, 3, 0.001, 0.0005, 0, , , , , , 
4462, 4472, 1, 0, 0.035, 0, , , , , , 
@! 4462, 5022, 1, 0, 0.0001, 0, , , , , , 
@! 4462, 44661, 1, 0, 0.0001, 0, , , , , , 
4471, 4651, 4, 0.001, 0.0005, 0, , , , , , 
4472, 17431, 1, 0.0085, 0.0155, 0, , , , , , 
@! 4472, 44662, 1, 0, 0.0001, 0, , , , , , 
4501, 4691, 1, 0.008, 0.038, 0.0122, , , , , , 
4522, 5142, 1, 0.003, 0.017, 0.0077, , , , , , 
4651, 6371, 1, 0.000421, 0.000264, 0, , , , , , 
@! 4701, 4711, 1, 0, 0.0001, 0, , , , , , 
4721, 5181, 1, 0.0167, 0.1199, 0.0021, , , , , , 
@! 4721, 47210, 1, 0, 0.0001, 0, , , , , , 
4741, 23019, 1, 0.046, 0.307, 0.0051, , , , , , 
4781, 4961, 1, 0.035, 0.174, 0.0025, , , , , , 
4941, 22419, 1, 0.0187, 0.1346, 0.0024, , , , , , 
4941, 31019, 1, 0.085, 0.61, 0.0107, , , , , , 
4941, 50019, 1, 0.0375, 0.1855, 0.0026, , , , , , 
@! 4942, 4943, 1, 0, 0.0001, 0, , , , , , 
@! 4961, 49662, 1, 0, 0.0001, 0, , , , , , 
4981, 5041, 1, 0.031, 0.153, 0.0022, , , , , , 
4981, 5041, 2, 0.033, 0.165, 0.0023, , , , , , 
@! 4981, 49861, 1, 0, 0.0001, 0, , , , , , 
4991, 5361, 1, 0.012, 0.0604, 0.0009, , , , , , 
5001, 50019, 1, 0.0055, 0.0274, 0.0004, , , , , , 
@! 5022, 5222, 1, 0, 0.0001, 0, , , , , , 
5061, 50619, 1, 0.0055, 0.0275, 0.0004, , , , , , 
5111, 3761, 1, 0.01, 0.06, 0.0009, , , , , , 
@! 5122, 5222, 1, 0, 0.0001, 0, , , , , , 
@! 5141, 51410, 1, 0, 0.0001, 0, , , , , , 
5221, 52219, 1, 0.0079, 0.0398, 0.0006, , , , , , 
@! 5261, 52610, 1, 0, 0.0001, 0, , , , , , 
@! 5261, 52661, 1, 0, 0.0001, 0, , , , , , 
@! 5271, 5274, 1, 0, 0.0001, 0, , , , , , 
5271, 32810, 1, 0.046, 0.331, 0.0058, , , , , , 
5274, 5381, 1, 0.021, 0.149, 0.0026, , , , , , 
5281, 43619, 1, 0.0178, 0.1278, 0.0023, , , , , , 
@! 5281, 52861, 1, 0, 0.0001, 0, , , , , , 
5301, 31019, 1, 0.041, 0.291, 0.0051, , , , , , 
@! 5301, 53061, 1, 0, 0.0001, 0, , , , , , 
5451, 5501, 1, 0.024, 0.169, 0.003, , , , , , 
@! 5462, 54622, 1, 0, 0.0001, 0, , , , , , 
@! 5464, 54640, 1, 0.001, 0.001, 0, , , , , , 
@! 5501, 55061, 1, 0, 0.0001, 0, , , , , , 
@! 10204, 10205, 1, 0, 0.0001, 0, , , , , , 
10210, 5091, 1, 0.009, 0.06, 0.009, , , , , , 
@! 10901, 10902, 1, 0, 0.0001, 0, , , , , , 
11204, 11224, 1, 0.315, 0.981, 0.0317, , , , , , 
11204, 11234, 1, 0.61994, 0.65152, 0.001, , , , , , 
11234, 11244, 1, 0.306, 0.715, 0.1236, , , , , , 
11234, 11254, 1, 1.2709, 1.3357, 0.0207, , , , , , 
@! 11402, 68534, 1, 0, 0.0001, 0, , , , , , 
11404, 11414, 1, 0.267, 0.622, 0.1075, , , , , , 
12111, 6201, 1, 0.042, 0.216, 0, , , , , , 
12201, 12211, 1, 0.545, 0.7, 0.0008, , , , , , 
12504, 12534, 1, 0.3723, 0.6632, 0.00102, , , , , , 
12514, 12524, 1, 0.202, 0.321, 0.0012, , , , , , 
12522, 12512, 1, 0.6052, 0.9624, 0.00026, , , , , , 
12522, 12532, 1, 0.5612, 0.8924, 0.00024, , , , , , 
12582, 12592, 1, 0.004, 0.002, 0, , , , , , 
12702, 12712, 1, 0.726, 1.156, 0.0004, , , , , , 
12804, 12814, 1, 0.235, 0.548, 0.0947, , , , , , 
12804, 22254, 1, 1.085, 1.141, 0.0176, , , , , , 
@! 13001, 13011, 1, 0, 0.0001, 0, , , , , , 
@! 13011, 13023, 1, 0, 0.0001, 0, , , , , , 
13114, 13124, 1, 0.025, 0.039, 0.0002, , , , , , 
13114, 13134, 1, 0.245, 0.772, 0.0212, , , , , , 
@! 13271, 13204, 1, 0.001, 0.001, 0.0001, , , , , , 
13404, 13424, 1, 0.835, 1.329, 0.0047, , , , , , 
13404, 13434, 1, 0.451, 0.718, 0.0026, , , , , , 
@! 13404, 13494, 1, 0, 0.0001, 0, , , , , , 
@! 13404, 17044, 1, 0, 0.0001, 0, , , , , , 
13422, 68269, 1, 1.302, 0.412, 0, , , , , , 
13424, 13484, 1, 0.314, 0.335, 0.0067, , , , , , 
13434, 13464, 1, 0.306, 0.502, 0.0095, , , , , , 
13444, 13454, 1, 0.146, 0.491, 0.0002, , , , , , 
13494, 13444, 1, 0.078, 0.222, 0.0148, , , , , , 
13802, 13812, 1, 0.352, 0.56, 0.0002, , , , , , 
13810, 47210, 2, 0.0042, 0.0246, 0.0004, , , , , , 
14001, 14006, 1, 4.5, 7.28, 0.0001, , , , , , 
14004, 14024, 1, 0.7496, 1.1925, 0.0042, , , , , , 
14010, 14013, 1, 0.004, 0.016, 0.176, , , , , , 
14014, 14054, 1, 0.5993, 0.6298, 0.0098, , , , , , 
14014, 14064, 1, 0.166, 0.559, 0.0002, , , , , , 
14024, 14034, 1, 1.7152, 1.8025, 0.0279, , , , , , 
14064, 14074, 1, 0.2434, 0.8208, 0.0002, , , , , , 
14204, 68298, 1, 0, 0.0001, 0, , , , , , 
14204, 68300, 1, 0, 0.0001, 0, , , , , , 
14402, 14412, 1, 1.997, 3.17, 0.001, , , , , , 
@! 14404, 14405, 1, 0, 0.0001, 0, , , , , , 
14404, 14414, 1, 2.107, 1.696, 0.0049, , , , , , 
@! 14604, 14605, 1, , 0.0001, , , , , , , 
14604, 14614, 1, 0.46299, 1.35102, 0.00255, , , , , , 
15102, 15112, 1, 0.144, 0.186, 0.0131, , , , , , 
15102, 15122, 1, 0.11, 0.176, 0.0001, , , , , , 
15102, 15142, 1, 0.144, 0.186, 0.0131, , , , , , 
15102, 15162, 1, 0.206, 0.065, 0, , , , , , 
15122, 15132, 1, 1.261, 0.582, 0.0001, , , , , , 
15220, 1522, 1, 0.001, 0.001, 0.083, , , , , , 
15220, 1522, 2, 0.001, 0.001, 0.083, , , , , , 
@! 15502, 15512, 1, 0, 0.0001, 0, , , , , , 
15504, 15514, 1, 0.827, 0.869, 0.0135, , , , , , 
15504, 15534, 1, 0.049, 0.113, 0.0195, , , , , , 
15702, 68260, 1, 0.77, 1.226, 0.0004, , , , , , 
@! 15704, 35804, 1, 0, 0.0001, 0, , , , , , 
16011, 3881, 1, 0.0081, 0.036, 0.396, , , , , , 
16110, 1971, 1, 0.0099, 0.0713, 0.0013, , , , , , 
16110, 2771, 1, 0.024, 0.01, 0, , , , , , 
16302, 16362, 1, 1.54, 2.45, 0, , , , , , 
16302, 16366, 1, 2.351, 3.404, 0.0019, , , , , , 
16312, 16354, 1, 2.42, 3.85, 0, , , , , , 
16312, 16367, 1, 1.232, 1.96, 0, , , , , , 
16312, 16384, 1, 1.005, 0.318, 0, , , , , , 
16312, 16394, 1, 1.005, 0.318, 0, , , , , , 
16351, 16361, 1, 0.55, 0.875, 0, , , , , , 
16351, 16366, 1, 0.165, 0.2626, 0, , , , , , 
16354, 16364, 1, 0.055, 0.0876, 0, , , , , , 
16354, 16365, 1, 0.055, 0.0876, 0, , , , , , 
@! 17004, 17044, 1, 0, 0.0001, 0, , , , , , 
17004, 69197, 1, 0.084, 0.195, 0.0337, , , , , , 
17010, 2870, 1, 0.076, 0.323, 0.0053, , , , , , 
17010, 5041, 2, 0.0773, 0.5564, 0.0097, , , , , , 
17411, 1801, 1, 0.0345, 0.1356, 0.0503, , , , , , 
17411, 2491, 1, 0.0205, 0.1029, 0.0014, , , , , , 
17411, 24819, 1, 0.008, 0.0398, 0.0006, , , , , , 
18010, 2591, 1, 0.008, 0.041, 0.0189, , , , , , 
18010, 3091, 1, 0.0143, 0.0493, 0.0394, , , , , , 
18312, 18322, 1, 0.503, 0.159, 0, , , , , , 
18604, 18614, 1, 1.496, 1.591, 0.0178, , , , , , 
18604, 18624, 1, 3.235, 3.399, 0.0525, , , , , , 
18604, 18634, 1, 1.916, 2.049, 0.0361, , , , , , 
18802, 68115, 1, 0.068, 0.022, 0, , , , , , 
18802, 68123, 1, 0.991, 0.314, 0, , , , , , 
18804, 18834, 1, 0.738, 1.174, 0.0042, , , , , , 
18812, 18832, 1, 2.156, 3.43, 0.001, , , , , , 
18812, 68303, 1, 1.804, 2.87, 0.0008, , , , , , 
18814, 18824, 1, 0.137, 0.319, 0.0551, , , , , , 
18824, 67031, 1, 0.068, 0.159, 0.0274, , , , , , 
18824, 68224, 1, 0.182, 0.192, 0.003, , , , , , 
19002, 19072, 1, 1.13588, 1.46, 0.02567, , , , , , 
19004, 19014, 1, 0.85759, 0.90127, 0.00139, , , , , , 
19302, 19312, 1, 2.5895, 0.819, 0, , , , , , 
19302, 19322, 1, 2.5895, 0.819, 0, , , , , , 
@! 19322, 19318, 1, 0, 0.0001, 0, , , , , , 
@! 19601, 19602, 1, , 0.0001, , , , , , , 
20411, 3761, 1, 0.008, 0.028, 0.0004, , , , , , 
20411, 5111, 1, 0.008, 0.028, 0.0004, , , , , , 
21004, 21014, 1, 2.46, 2.585, 0.0399, , , , , , 
21004, 21024, 1, 1.382, 1.461, 0.0185, , , , , , 
21004, 21034, 1, 0.326, 0.76, 0.1314, , , , , , 
21014, 21024, 1, 0.439, 0.699, 0.0025, , , , , , 
21034, 68404, 1, 0.672, 0.719, 0.0148, , , , , , 
21212, 21222, 1, 0.198, 0.316, 0.0001, , , , , , 
21404, 21414, 1, 0.0778, 0.2622, 0.0001, , , , , , 
21412, 21422, 1, 2.2, 3.5, 0.0009, , , , , , 
@! 21601, 21611, 1, 0, 0.0001, 0, , , , , , 
21604, 21614, 1, 0.69354, 0.78299, 0.01533, , , , , , 
21604, 21634, 1, 0.159, 0.536, 0.0002, , , , , , 
21612, 21622, 1, 0.352, 0.56, 0.0002, , , , , , 
21614, 21624, 1, 0.085, 0.198, 0.0342, , , , , , 
@! 21801, 21811, 1, 0, 0.0001, 0, , , , , , 
21802, 21812, 1, 0.985, 1.56, 0.0006, , , , , , 
21804, 21814, 1, 0.066, 0.197, 0.0093, , , , , , 
21804, 21824, 1, 4.133, 4.727, 0, , , , , , 
21804, 21834, 1, 0.085, 0.286, 0.0001, , , , , , 
21804, 21864, 1, 1.355, 1.426, 0.0225, , , , , , 
21814, 21854, 1, 0.064, 0.148, 0.0256, , , , , , 
21821, 21831, 1, 0.458, 0.728, 0.0001, , , , , , 
21822, 21842, 1, 2.012, 3.02, 0.0009, , , , , , 
21822, 68313, 1, 1.474, 2.346, 0.0007, , , , , , 
21834, 21844, 1, 0.62, 0.652, 0.0101, , , , , , 
22201, 22221, 1, 2.5168, 4.004, 0.000067496, , , , , , 
@! 22204, 22208, 1, 0, 0.0001, 0, , , , , , 
22204, 22244, 1, 0.6, 0.63, 0.0098, , , , , , 
22204, 22264, 1, 1.476, 1.146, 0.0011, , , , , , 
22208, 22284, 1, 0.157, 0.365, 0.0631, , , , , , 
22224, 22234, 1, 1.85, 1.944, 0.03, , , , , , 
22231, 68125, 1, 11.88, 18.9, 0.0004, , , , , , 
22232, 22252, 1, 2.64, 4.2, 0.0012, , , , , , 
22234, 22244, 1, 1.674, 1.759, 0.0272, , , , , , 
22282, 22271, 1, 1.672, 2.66, 0.00071744, , , , , , 
22442, 22452, 1, 0.991, 0.314, 0, , , , , , 
@! 22612, 22613, 1, , 0.0001, , , , , , , 
22613, 3841, 1, 0.0681, 0.4838, 0.0085, , , , , , 
@! 22613, 22614, 1, , 0.0001, , , , , , , 
22614, 5321, 1, 0.054, 0.2718, 0.0038, , , , , , 
@! 22614, 22610, 1, 0, 0.0001, 0, , , , , , 
22814, 22824, 1, 0.136, 0.317, 0.0547, , , , , , 
23002, 23012, 1, 0.354, 0.112, 0, , , , , , 
23604, 23614, 1, 0.04, 0.092, 0.0158, , , , , , 
@! 23611, 23621, 1, 0, 0.0001, 0, , , , , , 
25404, 12, 1, 0.002, 0.005, 0.001, , , , , , 
25404, 12, 3, 0.002, 0.002, 0.001, , , , , , 
@! 25604, 25605, 1, , 0.0001, , , , , , , 
25614, 25604, 1, 1.04, 1.102, 0.0194, , , , , , 
@! 26700, 26702, 1, 0, 0.0001, 0, , , , , , 
26702, 26709, 1, 0, 0.0001, 0, , , , , , 
26702, 26710, 1, 0, 0.0001, 0, , , , , , 
@! 26702, 26712, 1, 0, 0.0001, 0, , , , , , 
@! 26703, 26712, 1, 0, 0.0001, 0, , , , , , 
26705, 26722, 1, , 0.0001, , , , , , , 
26712, 26705, 1, , 0.0001, , , , , , , 
@! 27004, 68566, 1, 0, 0.0001, 0, , , , , , 
@! 27204, 27205, 1, , 0.0001, , , , , , , 
27204, 27214, 1, 1.095, 1.156, 0.0195, , , , , , 
27214, 27224, 1, 0.012, 0.028, 0.0048, , , , , , 
27281, 3841, 1, 0.0061, 0.0355, 0.0004, , , , , , 
@! 27302, 27361, 1, 0, 0.0001, 0, , , , , , 
27404, 27414, 1, 0.5, 0.795, 0.0028, , , , , , 
27404, 27424, 1, 0.93, 0.978, 0.0151, , , , , , 
27432, 27442, 1, 0.286, 0.456, 0.0002, , , , , , 
27702, 27703, 1, 0, 0.0001, 0, , , , , , 
27712, 27722, 1, 0.572, 0.91, 0.0003, , , , , , 
@! 27804, 27805, 1, 0, 0.0001, 0, , , , , , 
@! 28601, 28602, 1, 0, 0.0001, 0, , , , , , 
@! 28710, 28712, 1, 0, 0.0001, 0, , , , , , 
28710, 51911, 1, 0.0128, 0.1339, 0.1304, , , , , , 
28810, 3391, 1, 0.053, 0.15, 0.1565, , , , , , 
28814, 28834, 1, 0.183, 0.426, 0.0736, , , , , , 
28824, 28834, 1, 0.209, 0.487, 0.0841, , , , , , 
@! 30820, 3082, 1, 0, 0.0001, 0, , , , , , 
30820, 3852, 1, 0.007, 0.041, 0.0195, , , , , , 
30820, 4472, 1, 0.0098, 0.0132, 0, , , , , , 
30820, 4472, 2, 0.003, 0.0141, 0, , , , , , 
31004, 31014, 1, 0.39162, 0.4569, 0.01478, , , , , , 
31004, 31024, 1, 0.25, 0.398, 0.0014, , , , , , 
@! 32404, 32405, 1, , 0.0001, , , , , , , 
32504, 32514, 1, 0.02, 0.047, 0.0081, , , , , , 
32504, 32524, 1, 0.221, 0.514, 0.0889, , , , , , 
32554, 32564, 1, 0.014, 0.031, 0.0053, , , , , , 
@! 32604, 32605, 1, , 0.0001, , , , , , , 
32810, 3541, 2, 0.0327, 0.1559, 0.0022, , , , , , 
33004, 33014, 1, 0.691, 2.33, 0.0005, , , , , , 
33014, 33024, 1, 0.868, 0.913, 0.0141, , , , , , 
33014, 68564, 1, 0, 0.0001, 0, , , , , , 
33024, 33034, 1, 0.772, 0.877, 0.0322, , , , , , 
34602, 68165, 1, 0.722, 0.229, 0, , , , , , 
34620, 5142, 1, 0.0015, 0.006, 0.029, , , , , , 
34803, 34813, 1, 0.183, 0.426, 0.0736, , , , , , 
35011, 4711, 2, 0.035, 0.171, 0.0039, , , , , , 
35011, 66094, 1, 0.025, 0.125, 0.0018, , , , , , 
35211, 3821, 1, 0.042, 0.208, 0.0029, , , , , , 
35231, 90020, 1, 0.01, 0.055, 0, , , , , , 
35232, 90020, 2, 0.01, 0.055, 0, , , , , , 
35604, 68144, 1, 1.081, 1.725, 0.0092, , , , , , 
35804, 35814, 1, 2.34, 2.769, 0.0448, , , , , , 
36204, 36214, 1, 0.05407, 0.15778, 0.0003, , , , , , 
36402, 36412, 1, 0.4085, 0.525, 0.037, , , , , , 
36402, 36422, 1, 0.5369, 0.69, 0.0486, , , , , , 
36402, 36432, 1, 0.9336, 1.2, 0.0211, , , , , , 
36402, 36442, 1, 0.807, 0.256, 0, , , , , , 
36432, 36452, 1, 0.374, 0.595, 0.00016, , , , , , 
36432, 36462, 1, 0.0623, 0.08, 0.0015, , , , , , 
36442, 36482, 1, 0.085, 0.027, 0, , , , , , 
36442, 36492, 1, 0.658, 0.209, 0, , , , , , 
@! 36502, 36503, 1, 0, 0.0001, 0, , , , , , 
38204, 38203, 1, 0.455, 0.478, 0.0074, , , , , , 
38204, 38214, 1, 0.981, 1.219, 0.0147, , , , , , 
38204, 38224, 1, 0.134, 0.43, 0.0002, , , , , , 
38211, 38242, 1, 4.163, 6.56, 0.0004, , , , , , 
38214, 38264, 1, 1.034, 1.086, 0.0168, , , , , , 
@! 38224, 38234, 1, 0, 0.0001, 0, , , , , , 
38224, 38254, 1, 2.46, 2.585, 0.0399, , , , , , 
38234, 38233, 1, 0.507, 0.533, 0.0083, , , , , , 
38234, 38244, 1, 1.319, 1.43, 0, , , , , , 
38264, 38284, 1, 0.584, 0.634, 0.0156, , , , , , 
40004, 40014, 1, 0.07, 0.162, 0.0279, , , , , , 
40912, 40922, 1, 0.17, 0.27, 0.0001, , , , , , 
40922, 40932, 1, 0.581, 0.924, 0.0003, , , , , , 
42004, 42014, 1, 0.054, 0.177, 0.0021, , , , , , 
42011, 42021, 1, 1.32, 2.1, 0.0001, , , , , , 
42204, 42214, 1, 2.067, 2.172, 0.0336, , , , , , 
42204, 42224, 1, 0.173, 0.582, 0.0002, , , , , , 
42224, 42234, 1, 0.734, 0.771, 0.0119, , , , , , 
42234, 42244, 1, 0.62, 0.652, 0.0101, , , , , , 
42244, 68554, 1, 0.104, 0.109, 0.0017, , , , , , 
43704, 43714, 1, 0.014, 0.031, 0.0053, , , , , , 
43704, 43724, 1, 0.164, 0.553, 0.0002, , , , , , 
43742, 43752, 1, 1.1658, 1.7, 0.0118, , , , , , 
44001, 44011, 1, 1.016, 2.376, 0, , , , , , 
@! 44804, 44805, 1, , 0.0001, , , , , , , 
44804, 44814, 1, 0.159, 0.253, 0.0009, , , , , , 
44804, 44834, 1, 0.676, 2.28, 0.0005, , , , , , 
44811, 44821, 1, 0.343, 0.44, 0.0005, , , , , , 
44812, 68285, 1, 1.21, 1.926, 0.0006, , , , , , 
@! 46513, 46503, 1, 0, 0.0001, 0, , , , , , 
46804, 46814, 1, 1.353, 1.434, 0.0158, , , , , , 
46804, 46834, 1, 0.305, 1.026, 0.0003, , , , , , 
46804, 46854, 1, 0.878, 0.922, 0.0143, , , , , , 
@! 46804, 68547, 1, 0, 0.0001, 0, , , , , , 
46814, 46824, 1, 1.054, 1.108, 0.0171, , , , , , 
46834, 46844, 1, 0.248, 0.261, 0.0041, , , , , , 
47004, 47014, 1, 0.169, 0.57, 0.0002, , , , , , 
47014, 47024, 1, 0.169, 0.57, 0.0002, , , , , , 
47024, 47034, 1, 0.043, 0.068, 0.0003, , , , , , 
47210, 4761, 1, 0.0058, 0.0289, 0.0005, , , , , , 
47210, 5181, 2, 0.015, 0.107, 0.0072, , , , , , 
@! 47210, 47261, 1, 0, 0.0001, 0, , , , , , 
49504, 49514, 1, 0.122, 0.283, 0.0489, , , , , , 
@! 49604, 49605, 1, , 0.0001, , , , , , , 
49604, 49614, 1, 0.416, 0.687, 0.016, , , , , , 
49802, 49832, 1, 0.55, 0.875, 0.0003, , , , , , 
49804, 49814, 1, 2.7065, 2.8448, 0.0438, , , , , , 
49832, 49812, 1, 1.408, 2.24, 0.0007, , , , , , 
49832, 49842, 1, 0.902, 1.435, 0.0004, , , , , , 
@! 49912, 49932, 1, 0, 0.0001, 0, , , , , , 
@! 49912, 49942, 1, 0, 0.0001, 0, , , , , , 
@! 49912, 49952, 1, 0, 0.0001, 0, , , , , , 
49952, 49962, 1, 0.22, 0.35, 0.0001, , , , , , 
49952, 49982, 1, 0.13, 0.154, 0.0012, , , , , , 
@! 49977, 49978, 1, 0, 0.0001, 0, , , , , , 
@! 49977, 49979, 1, 0, 0.0001, 0, , , , , , 
50004, 50014, 1, 2.666, 2.802, 0.0433, , , , , , 
50022, 50032, 1, 1.769, 0.56, 0, , , , , , 
52201, 52211, 1, 6.6, 10.5, 0.00018, , , , , , 
52204, 52214, 1, 0.011, 0.025, 0.0043, , , , , , 
52204, 52224, 1, 0.3306, 0.3474, 0.00054, , , , , , 
52224, 52234, 1, 1.3123, 1.3791, 0.0213, , , , , , 
52404, 52414, 1, 0.006, 0.013, 0.0022, , , , , , 
52604, 52654, 1, 0.051, 0.172, 0.0001, , , , , , 
52604, 52694, 1, 0.992, 1.043, 0.0161, , , , , , 
52605, 52615, 1, 0.259, 0.272, 0.0042, , , , , , 
52614, 52624, 1, 0.248, 0.578, 0.0999, , , , , , 
52624, 52634, 1, 0.053, 0.122, 0.0211, , , , , , 
52624, 52644, 1, 0.053, 0.122, 0.0211, , , , , , 
52654, 52664, 1, 1.912, 2.009, 0.031, , , , , , 
52664, 52674, 1, 0.256, 0.408, 0.0015, , , , , , 
52674, 52625, 1, 0.189, 0.301, 0.0011, , , , , , 
52694, 52605, 1, 0.75, 0.788, 0.0122, , , , , , 
52694, 68233, 2, 0.927, 1.474, 0.0052, , , , , , 
52704, 52784, 1, 0.38864, 1.13407, 0.00214, , , , , , 
52704, 52794, 1, 0.274, 0.639, 0.1104, , , , , , 
52714, 52705, 1, 0.274, 0.639, 0.1104, , , , , , 
52714, 52744, 1, 0.28, 0.654, 0.1131, , , , , , 
52724, 52764, 1, 0.118, 0.274, 0.0474, , , , , , 
53002, 53012, 1, 0.704, 1.12, 0.0004, , , , , , 
53002, 53022, 1, 0.572, 0.91, 0.0003, , , , , , 
53004, 53014, 1, 1.37421, 1.44421, 0.00223, , , , , , 
53004, 53024, 1, 0.385, 0.898, 0.1553, , , , , , 
@! 53024, 53034, 1, 0, 0.0001, 0, , , , , , 
53042, 53062, 1, 0.94, 1.027, 0.0003, , , , , , 
53052, 53072, 1, 0.44, 0.7, 0.00019, , , , , , 
53204, 53214, 1, 0.15, 0.304, 0.0053, , , , , , 
53204, 53221, 1, 0.561, 0.72, 0.0008, , , , , , 
53404, 53414, 1, 0.003, 0.006, 0.001, , , , , , 
53411, 53431, 1, 3.392, 5.3, 0.0006, , , , , , 
53431, 53421, 1, 0.034, 0.08, 0, , , , , , 
@! 53604, 68195, 1, 0, 0.0001, 0, , , , , , 
53614, 53624, 1, 0.183, 0.426, 0.0736, , , , , , 
@! 53624, 68284, 1, 0, 0.0001, 0, , , , , , 
54401, 54431, 1, 1.056, 1.68, 0.0001, , , , , , 
54402, 54425, 1, 1.29048, 2.015, 0.00331, , , , , , 
54404, 54414, 1, 0.55795, 0.58637, 0.0009, , , , , , 
54404, 54424, 1, 0.90925, 0.95556, 0.00147, , , , , , 
54412, 54422, 1, 1.29048, 2.015, 0.00331, , , , , , 
54422, 54426, 1, 2.515, 3.46, 0.0009, , , , , , 
55004, 55024, 1, 0.338, 1.14, 0.0003, , , , , , 
55042, 55052, 1, 0.114, 0.036, 0, , , , , , 
62004, 62014, 1, 0.142, 0.464, 0.0054, , , , , , 
62014, 68290, 1, 0.74, 0.853, 0.0105, , , , , , 
@! 68313, 68314, 1, 0, 0.0001, 0, , , , , , 
@! 69182, 69183, 1, 0, 0.0001, 0, , , , , , 
70010, 79010, 1, 0.0758, 0.31988, , , , , , , 
70030, 70031, 1, , 0.0001, , , , , , , 
70030, 70031, 2, , 0.0001, , , , , , , 
70030, 70032, 1, , 0.0001, , , , , , , 
70030, 70032, 2, , 0.0001, , , , , , , 
@! 70030, 70090, 1, , 0.0001, , , , , , , 
@! 70032, 70033, 1, , 0.0001, , , , , , , 
70032, 79080, 1, , 0.0001, , , , , , , 
70032, 79081, 1, , 0.0001, , , , , , , 
70080, 70090, 1, , 0.0001, , , , , , , 
70080, 70091, 1, , 0.0001, , , , , , , 
70090, 70093, 1, , 0.0001, , , , , , , 
70090, 70094, 1, , 0.0001, , , , , , , 
70095, 70090, 1, , 0.0001, , , , , , , 
70311, 81510, 1, 0.02599, 0.07512, 0, , , , , , 
70312, 81510, 2, 0.02599, 0.07512, 0, , , , , , 
@! 70330, 70390, 1, , 0.0001, , , , , , , 
70390, 70394, 1, , 0.0001, , , , , , , 
70510, 72010, 1, 0.05052, 0.14601, 0, , , , , , 
70510, 72010, 2, 0.05052, 0.14601, 0, , , , , , 
70510, 78511, 1, 0.045, 0.1353, 0.0031, , , , , , 
70510, 78512, 2, 0.045, 0.13333, 0.0031, , , , , , 
70520, 81020, 2, 0.00928, 0.05441, 0, , , , , , 
70520, 81520, 1, 0.00699, 0.04065, 0, , , , , , 
70520, 85020, 1, 0.01327, 0.07718, 0, , , , , , 
70520, 86220, 1, 0.00016, 0.00096, 0, , , , , , 
71011, 81510, 1, 0.0292, 0.0844, 0, , , , , , 
71012, 81510, 2, 0.03358, 0.09706, 0, , , , , , 
@! 71031, 71090, 1, , 0.0001, , , , , , , 
71033, 71034, 1, , 0.0001, , , , , , , 
71033, 71090, 1, , 0.0001, , , , , , , 
71034, 71035, 1, , 0.0001, , , , , , , 
71034, 71080, 1, , 0.0001, , , , , , , 
71035, 71090, 1, , 0.0001, , , , , , , 
71038, 71090, 1, , 0.4, , , , , , , 
71080, 71091, 1, , 0.0001, , , , , , , 
71090, 71037, 1, 0.001, 0.001, 0.0001, , , , , , 
@! 71090, 71093, 1, 0, 0.0001, 0, , , , , , 
71511, 90012, 1, 0.05373, 0.1553, , , , , , , 
71512, 90012, 2, 0.04146, 0.11985, , , , , , , 
@! 71530, 71590, 1, , 0.0001, , , , , , , 
72010, 81510, 1, 0.0619, 0.17893, 0, , , , , , 
72010, 81510, 2, 0.05928, 0.17133, 0, , , , , , 
72010, 83011, 1, 0.01754, 0.05907, 0, , , , , , 
72010, 83012, 2, 0.01754, 0.05907, 0, , , , , , 
72511, 74512, 1, 0.0619, 0.17893, 0, , , , , , 
72512, 74512, 2, 0.0619, 0.17893, 0, , , , , , 
@! 72530, 72590, 1, , 0.0001, , , , , , , 
73011, 76511, 1, 0.02873, 0.01386, , , , , , , 
73012, 76512, 2, 0.02873, 0.01386, , , , , , , 
@! 73031, 73032, 1, 0, 0.0001, , , , , , , 
73031, 74730, 1, 0.013, 0.2669, , , , , , , 
73031, 74730, 2, 0.01245, 0.26627, , , , , , , 
73031, 78030, 1, 0.0212, 0.2719, , , , , , , 
73031, 89030, 1, 0.026, 0.2676, , , , , , , 
73032, 74730, 1, 0.01925, 0.26296, , , , , , , 
73032, 74730, 2, 0.01171, 0.2653, , , , , , , 
73032, 78030, 1, 0.0203, 0.2709, , , , , , , 
73032, 89030, 1, 0.0182, 0.2688, , , , , , , 
73500, 73510, 1, 0.0138, 0.0404, 0, , , , , , 
73510, 87900, 1, 0.0504, 0.1473, 0, , , , , , 
74011, 74511, 1, 0.07355, 0.22079, , , , , , , 
74011, 78511, 1, 0.03695, 0.10949, 0, , , , , , 
74012, 74511, 2, 0.07355, 0.21771, , , , , , , 
74012, 78512, 2, 0.03695, 0.1111, 0, , , , , , 
@! 74030, 74090, 1, , 0.0001, , , , , , , 
74030, 80532, 1, , 0.0001, , , , , , , 
74030, 80532, 2, , 0.0001, , , , , , , 
74090, 74091, 1, , 0.0001, , , , , , , 
@! 74511, 74512, 1, 0, 0.0001, 0, , , , , , 
@! 74511, 74512, 2, 0, 0.0001, , , , , , , 
74511, 76011, 1, 0.00706, 0.00363, , , , , , , 
74511, 76012, 2, 0.00708, 0.00364, , , , , , , 
74511, 82511, 1, 0.03198, 0.01345, , , , , , , 
74511, 82512, 2, 0.03149, 0.01324, , , , , , , 
74512, 86311, 1, 0.02618, 0.11398, , , , , , , 
74512, 86312, 2, 0.03103, 0.13538, , , , , , , 
74512, 88011, 1, 0.05519, 0.15952, 0, , , , , , 
74512, 88012, 2, 0.05519, 0.15952, 0, , , , , , 
74512, 88511, 1, 0.00064, 0.00252, , , , , , , 
74512, 88512, 2, 0.00064, 0.00252, , , , , , , 
74520, 81020, 1, 0.00375, 0.022, 0, , , , , , 
74520, 81020, 2, 0.00375, 0.022, 0, , , , , , 
74520, 82020, 1, 0.01356, 0.07899, 0, , , , , , 
74520, 90020, 1, 0.0093, 0.05453, 0, , , , , , 
74711, 76011, 1, 0.00748, 0.00248, 0, , , , , , 
74712, 76012, 2, 0.00748, 0.00248, 0, , , , , , 
74730, 86030, 1, 0.0129, 0.2689, , , , , , , 
74730, 86030, 2, 0.0129, 0.2689, , , , , , , 
@! 75010, 75011, 1, 0, 0.0001, , , , , , , 
75010, 75510, 1, 0.13607, 0.3933, 0, , , , , , 
75010, 83510, 1, 0.0544, 0.15724, 0, , , , , , 
75010, 84511, 1, 0.02365, 0.06836, 0, , , , , , 
75010, 84512, 2, 0.02365, 0.06836, 0, , , , , , 
75010, 87900, 1, 0.05849, 0.16905, 0, , , , , , 
@! 75030, 75090, 1, , 0.0001, , , , , , , 
75031, 75090, 1, , 0.0001, , , , , , , 
75031, 75090, 2, , 0.0001, , , , , , , 
75031, 75092, 1, , 0.0001, , , , , , , 
75031, 75093, 1, , 0.0001, , , , , , , 
75032, 75080, 1, , 0.0001, , , , , , , 
75080, 75090, 1, , 0.0001, , , , , , , 
75080, 75091, 1, , 0.0001, , , , , , , 
75090, 75094, 1, , 0.0001, , , , , , , 
75090, 75095, 1, , 0.0001, , , , , , , 
@! 75510, 75511, 1, 0, 0.0001, 0, , , , , , 
@! 75510, 75514, 1, 0, 0.0001, 0, , , , , , 
75510, 75611, 1, , 0.0001, , , , , , , 
75510, 81810, 1, 0.04671, 0.16008, 0, , , , , , 
75510, 83510, 1, 0.08614, 0.24898, 0, , , , , , 
75510, 84411, 1, 0.02628, 0.07596, 0, , , , , , 
75510, 84412, 2, 0.02628, 0.07596, 0, , , , , , 
75510, 89311, 1, 0.02388, 0.06941, , , , , , , 
75510, 89312, 2, 0.02412, 0.0695, , , , , , , 
75510, 89510, 1, 0.04333, 0.13392, , , , , , , 
75520, 75521, 1, 0.00001, 0.00003, 0, , , , , , 
75520, 75522, 1, 0.00001, 0.00003, 0, , , , , , 
75521, 85020, 1, 0.01478, 0.06793, 0, , , , , , 
75522, 85020, 2, 0.01478, 0.06793, 0, , , , , , 
@! 75530, 75590, 1, , 0.0001, , , , , , , 
@! 75590, 75591, 1, , 0.0001, , , , , , , 
75610, 75611, 1, , 0.0001, , , , , , , 
75810, 81510, 1, 0.06645, 0.18865, , , , , , , 
75810, 90310, 1, 0.1009, 0.28822, , , , , , , 
@! 75830, 75890, 1, , 0.0001, , , , , , , 
@! 76031, 76032, 1, 0, 0.0001, 0, , , , , , 
76031, 86030, 1, 0.0067, 0.0119, 0, , , , , , 
76031, 86030, 2, 0.0067, 0.0119, , , , , , , 
76032, 82530, 1, 0.02, 0.03, 0, , , , , , 
76032, 82530, 2, 0.02, 0.03, , , , , , , 
76511, 81010, 1, 0.00979, 0.00451, 0, , , , , , 
76512, 81010, 2, 0.00979, 0.00451, 0, , , , , , 
76513, 80012, 1, 0.00889, 0.02651, 0, , , , , , 
76514, 80011, 2, 0.00869, 0.02609, 0, , , , , , 
@! 76531, 76533, 1, 0, 0.0001, , , , , , , 
76532, 76533, 1, 0, 0.0001, 0, , , , , , 
76532, 76533, 2, 0, 0.0001, 0, , , , , , 
76810, 77210, 1, 0.03796, 0.10972, , , , , , , 
76810, 79010, 1, 0.07159, 0.206926, , , , , , , 
76810, 79010, 2, 0.07159, 0.206926, , , , , , , 
76810, 87510, 1, 0.02681, 0.0775, , , , , , , 
76810, 87510, 2, 0.0266, 0.07689, , , , , , , 
77010, 90011, 1, 0.01087, 0.03661, 0, , , , , , 
77010, 90011, 2, 0.01087, 0.03661, 0, , , , , , 
77010, 90011, 3, 0.0118, 0.038, 0, , , , , , 
77010, 90310, 1, 0.06478, 0.19468, 0, , , , , , 
77010, 90310, 2, 0.0621, 0.17971, 0, , , , , , 
@! 77030, 77090, 1, , 0.0001, , , , , , , 
77230, 77291, 1, , 0.0001, , , , , , , 
77230, 77292, 1, , 0.0001, , , , , , , 
77230, 77294, 1, , 0.0001, , , , , , , 
@! 77511, 77512, 1, , 0.0001, , , , , , , 
@! 77511, 77512, 2, , 0.0001, , , , , , , 
77511, 90310, 1, 0.01455, 0.06347, 0, , , , , , 
77511, 90310, 2, 0.01952, 0.06386, 0, , , , , , 
77512, 87510, 1, 0.10541, 0.30468, , , , , , , 
77512, 90310, 3, 0.01556, 0.0457, , , , , , , 
@! 77530, 77590, 1, , 0.0001, , , , , , , 
77531, 77590, 1, , 0.0001, , , , , , , 
77531, 77590, 2, , 0.0001, , , , , , , 
77531, 77591, 1, , 0.0001, , , , , , , 
78030, 89030, 1, 0.0178, 0.012, 0, , , , , , 
78030, 89030, 2, 0.0135, 0.0127, , , , , , , 
@! 78530, 78590, 1, , 0.0001, , , , , , , 
79030, 79080, 1, , 0.0001, , , , , , , 
79030, 79081, 1, , 0.0001, , , , , , , 
@! 79030, 79090, 1, , 0.0001, , , , , , , 
79031, 79082, 1, , 0.0001, , , , , , , 
79031, 79090, 1, , 0.0001, , , , , , , 
79031, 79090, 2, , 0.0001, , , , , , , 
79032, 79082, 1, , 0.0001, , , , , , , 
79082, 79091, 1, , 0.0001, , , , , , , 
79090, 79094, 1, , 0.0001, , , , , , , 
80011, 81010, 1, 0.00552, 0.00183, , , , , , , 
80012, 81010, 2, 0.00552, 0.00183, , , , , , , 
80511, 81510, 1, 0.0652, 0.17194, 0, , , , , , 
80512, 81510, 2, 0.06523, 0.17195, 0, , , , , , 
@! 80531, 80532, 1, 0, 0.0001, , , , , , , 
@! 80532, 80540, 1, , 0.0001, , , , , , , 
80710, 87510, 1, 0.05548, 0.16036, , , , , , , 
80710, 90310, 1, 0.11096, 0.32072, , , , , , , 
80730, 80700, 1, , 0.09, , , , , , , 
80730, 80701, 1, , 0.6, , , , , , , 
80730, 80702, 1, , 0.0001, , , , , , , 
@! 80730, 80790, 1, , 0.0001, , , , , , , 
80730, 80795, 1, , 0.0001, , , , , , , 
80730, 80797, 1, , 0.3, , , , , , , 
80730, 80798, 1, , 0.3, , , , , , , 
81010, 84011, 1, 0.02436, 0.06038, 0, , , , , , 
81010, 84012, 2, 0.02205, 0.06542, , , , , , , 
@! 81011, 81010, 1, 0, 0.0001, 0, , , , , , 
81020, 86220, 1, 0.00912, 0.05345, 0, , , , , , 
81510, 87900, 1, 0.11359, 0.32832, 0, , , , , , 
81520, 82020, 1, 0.00587, 0.03417, 0, , , , , , 
81520, 82020, 2, 0.00587, 0.03417, 0, , , , , , 
81520, 85020, 1, 0.0063, 0.03665, 0, , , , , , 
81810, 89210, 1, 0.06107, 0.1, , , , , , , 
81810, 89510, 1, 0.05343, 0.13618, 0, , , , , , 
81830, 81831, 1, , 0.05, , , , , , , 
81830, 81832, 1, , 0.01, , , , , , , 
@! 82011, 82012, 1, 0, 0.0001, 0, , , , , , 
82020, 90020, 1, 0.01641, 0.09573, 0, , , , , , 
@! 83030, 83090, 1, , 0.0001, , , , , , , 
83031, 83090, 1, , 0.0001, , , , , , , 
83031, 83090, 2, , 0.0001, , , , , , , 
83031, 83091, 1, , 0.0001, , , , , , , 
@! 83090, 83092, 1, 0, 0.0001, 0, , , , , , 
@! 83530, 83590, 1, , 0.0001, , , , , , , 
83531, 83590, 1, , 0.0001, , , , , , , 
83531, 83590, 2, , 0.0001, , , , , , , 
83531, 83592, 1, , 0.0001, , , , , , , 
83590, 83591, 1, , 0.0001, , , , , , , 
...